networks/opendss/CKT_4412_08707.dss
! OpenDSS script generated from multiconductor network
Clear

New Circuit.mc_network basekv=16.0 pu=1.000000 angle=0.00 frequency=60.0 phases=3 Mvasc3=255987 Mvasc1=85329.1
~ bus1=-8888882160458.1.2.3

! Line codes
New LineCode.2_JCN_1PH_16KV_1 nphases=1 units=km Rmatrix=[ 0.002409 ] Xmatrix=[ 0.000508 ] Cmatrix=[ 0 ]
New LineCode.1000_CLP_3PH_16KV_3 nphases=3 units=km Rmatrix=[ 0.189997 | 0 0.189997 | 0 0 0.189997 ] Xmatrix=[ 0.287598 | 0 0.287598 | 0 0 0.287598 ] Cmatrix=[ 0 | 0 0 | 0 0 0 ]
New LineCode.750_CLP_3PH_16KV_3 nphases=3 units=km Rmatrix=[ 0.001137 | 0 0.001137 | 0 0 0.001137 ] Xmatrix=[ 0.001396 | 0 0.001396 | 0 0 0.001396 ] Cmatrix=[ 0 | 0 0 | 0 0 0 ]
New LineCode.1/0_CLP_3PH_16KV_3 nphases=3 units=km Rmatrix=[ 0.037581 | 0 0.037581 | 0 0 0.037581 ] Xmatrix=[ 0.011486 | 0 0.011486 | 0 0 0.011486 ] Cmatrix=[ 0 | 0 0 | 0 0 0 ]
New LineCode.1/0_CLP_1PH_16KV_1 nphases=1 units=km Rmatrix=[ 0.001858 ] Xmatrix=[ 0.000568 ] Cmatrix=[ 0 ]
New LineCode.2_CLP_1PH_16KV_1 nphases=1 units=km Rmatrix=[ 0.001978 ] Xmatrix=[ 0.000417 ] Cmatrix=[ 0 ]
New LineCode.350_CLP_1PH_16KV_1 nphases=1 units=km Rmatrix=[ 0.001308 ] Xmatrix=[ 0.000994 ] Cmatrix=[ 0 ]
New LineCode.1/0_ACSR_2PH_16KV_2 nphases=2 units=km Rmatrix=[ 0.109968 | 0 0.109968 ] Xmatrix=[ 0.087556 | 0 0.087556 ] Cmatrix=[ 0 | 0 0 ]
New LineCode.1000_JCN_3PH_16KV_3 nphases=3 units=km Rmatrix=[ 0.047685 | 0 0.047685 | 0 0 0.047685 ] Xmatrix=[ 0.072181 | 0 0.072181 | 0 0 0.072181 ] Cmatrix=[ 0 | 0 0 | 0 0 0 ]
New LineCode.350_CLP_3PH_16KV_3 nphases=3 units=km Rmatrix=[ 0.078786 | 0 0.078786 | 0 0 0.078786 ] Xmatrix=[ 0.059861 | 0 0.059861 | 0 0 0.059861 ] Cmatrix=[ 0 | 0 0 | 0 0 0 ]
New LineCode.2_CLP_2PH_16KV_2 nphases=2 units=km Rmatrix=[ 0.027363 | 0 0.027363 ] Xmatrix=[ 0.005768 | 0 0.005768 ] Cmatrix=[ 0 | 0 0 ]
New LineCode.1/0_CLP_2PH_16KV_2 nphases=2 units=km Rmatrix=[ 0.072733 | 0 0.072733 ] Xmatrix=[ 0.022231 | 0 0.022231 ] Cmatrix=[ 0 | 0 0 ]
New LineCode.1/0_JCN_3PH_16KV_3 nphases=3 units=km Rmatrix=[ 0.086014 | 0 0.086014 | 0 0 0.086014 ] Xmatrix=[ 0.02629 | 0 0.02629 | 0 0 0.02629 ] Cmatrix=[ 0 | 0 0 | 0 0 0 ]
New LineCode.2_CIC_3PH_16KV_3 nphases=3 units=km Rmatrix=[ 0.00163 | 0 0.00163 | 0 0 0.00163 ] Xmatrix=[ 0.000344 | 0 0.000344 | 0 0 0.000344 ] Cmatrix=[ 0 | 0 0 | 0 0 0 ]
New LineCode.350_AL_1PH_16KV_1 nphases=1 units=km Rmatrix=[ 0.037557 ] Xmatrix=[ 0.028535 ] Cmatrix=[ 0 ]
New LineCode.2_CLP_3PH_16KV_3 nphases=3 units=km Rmatrix=[ 0.076772 | 0 0.076772 | 0 0 0.076772 ] Xmatrix=[ 0.016182 | 0 0.016182 | 0 0 0.016182 ] Cmatrix=[ 0 | 0 0 | 0 0 0 ]
New LineCode.1/0_ATW_3PH_16KV_3 nphases=3 units=km Rmatrix=[ 1e-05 | 0 1e-05 | 0 0 1e-05 ] Xmatrix=[ 1e-05 | 0 1e-05 | 0 0 1e-05 ] Cmatrix=[ 0 | 0 0 | 0 0 0 ]
New LineCode.1/0_ATW_2PH_16KV_2 nphases=2 units=km Rmatrix=[ 1e-05 | 0 1e-05 ] Xmatrix=[ 1e-05 | 0 1e-05 ] Cmatrix=[ 0 | 0 0 ]
New LineCode.336_ACSR_3PH_336_ACSR_N_16KV_4 nphases=4 units=km Rmatrix=[ 0.013195 | 0 0.013195 | 0 0 0.013195 | 0 0 0 0.013195 ] Xmatrix=[ 0.026314 | 0 0.026314 | 0 0 0.026314 | 0 0 0 0.026314 ] Cmatrix=[ 0 | 0 0 | 0 0 0 | 0 0 0 0 ]
New LineCode.1/0_ACSR_3PH_16KV_3 nphases=3 units=km Rmatrix=[ 0.019505 | 0 0.019505 | 0 0 0.019505 ] Xmatrix=[ 0.015529 | 0 0.015529 | 0 0 0.015529 ] Cmatrix=[ 0 | 0 0 | 0 0 0 ]
New LineCode.336_ACSR_2PH_336_ACSR_N_16KV_3_N nphases=3 units=km Rmatrix=[ 0.001512 | 0 0.001512 | 0 0 0.001512 ] Xmatrix=[ 0.003016 | 0 0.003016 | 0 0 0.003016 ] Cmatrix=[ 0 | 0 0 | 0 0 0 ]
New LineCode.750_CLP_ABC_16_3 nphases=3 units=km Rmatrix=[ 0.053175 | 0 0.053175 | 0 0 0.053175 ] Xmatrix=[ 0.065305 | 0 0.065305 | 0 0 0.065305 ] Cmatrix=[ 0 | 0 0 | 0 0 0 ]

! Lines
New Line.GS1769-2$V5577380 phases=1 Bus1=105576394.3 Bus2=145002228.3 LineCode=2_JCN_1PH_16KV_1 Length=0.002438 units=km
New Line.GS1769-1$RCS1770-1 phases=3 Bus1=105576386.1.2.3 Bus2=223216696.1.2.3 LineCode=1000_CLP_3PH_16KV_3 Length=0.540519 units=km
New Line.GS1771-3$RCS1770-2 phases=3 Bus1=223216688.1.2.3 Bus2=107646267.1.2.3 LineCode=750_CLP_3PH_16KV_3 Length=1.09205 units=km
New Line.4735330EPH$RCS1770-4 phases=3 Bus1=223216712.1.2.3 Bus2=108872588.1.2.3 LineCode=1000_CLP_3PH_16KV_3 Length=0.040577 units=km
New Line.ND15912667$BS1338-R phases=3 Bus1=15912667.1.2.3 Bus2=15871779.1.2.3 LineCode=1/0_CLP_3PH_16KV_3 Length=0.308163 units=km
New Line.222412971$P5409891-1 phases=1 Bus1=222412973.1 Bus2=15905597.1 LineCode=1/0_CLP_1PH_16KV_1 Length=0.042724 units=km
New Line.ND148008600$POS9017-1 phases=1 Bus1=148008600.2 Bus2=15906855.2 LineCode=2_CLP_1PH_16KV_1 Length=0.147648 units=km
New Line.PME2671-1$ND231257925 phases=1 Bus1=231257925.1 Bus2=15906905.1 LineCode=1/0_CLP_1PH_16KV_1 Length=0.109646 units=km
New Line.ND15912667$ND15912980 phases=3 Bus1=15912667.1.2.3 Bus2=15912980.1.2.3 LineCode=1/0_CLP_3PH_16KV_3 Length=0.053577 units=km
New Line.169005031$ND231257925 phases=1 Bus1=231257925.1 Bus2=169005033.1 LineCode=1/0_CLP_1PH_16KV_1 Length=0.21678 units=km
New Line.P5469823-1$214340136 phases=1 Bus1=27049939.2 Bus2=214340139.2 LineCode=1/0_CLP_1PH_16KV_1 Length=0.401087 units=km
New Line.POS1193-1$231163541 phases=1 Bus1=15906562.2 Bus2=231163544.2 LineCode=2_CLP_1PH_16KV_1 Length=0.00531 units=km
New Line.ND148008600$ND238163028 phases=3 Bus1=148008600.1.2.3 Bus2=238163028.1.2.3 LineCode=750_CLP_3PH_16KV_3 Length=0.366791 units=km
New Line.ND15912667$241724279 phases=1 Bus1=15912667.1 Bus2=241724281.1 LineCode=1/0_CLP_1PH_16KV_1 Length=0.049555 units=km
New Line.BS6175-1$GS0417-2 phases=1 Bus1=242793568.1 Bus2=25036965.1 LineCode=350_CLP_1PH_16KV_1 Length=0.031504 units=km
New Line.P5469809-1$P5469810-1 phases=1 Bus1=27050227.3 Bus2=27050155.3 LineCode=1/0_CLP_1PH_16KV_1 Length=0.122752 units=km
New Line.P5469811-1$P5469812-2 phases=1 Bus1=27050371.3 Bus2=27050308.3 LineCode=1/0_CLP_1PH_16KV_1 Length=0.275827 units=km
New Line.239661028$P5469826-2 phases=1 Bus1=239661031.2 Bus2=27050668.2 LineCode=1/0_CLP_1PH_16KV_1 Length=0.00067 units=km
New Line.25091824$GS0417-1 phases=3 Bus1=242793559.1.2.3 Bus2=141015499.1.2.3 LineCode=1/0_CLP_3PH_16KV_3 Length=0.390928 units=km
New Line.P5469829-2$ND148288869 phases=1 Bus1=27049660.1 Bus2=148288869.1 LineCode=1/0_CLP_1PH_16KV_1 Length=0.002959 units=km
New Line.168991525$P5470053-1 phases=1 Bus1=168991528.2 Bus2=15909128.2 LineCode=2_CLP_1PH_16KV_1 Length=0.004902 units=km
New Line.173117352$ND173117580 phases=1 Bus1=173117354.1 Bus2=173117580.1 LineCode=2_CLP_1PH_16KV_1 Length=0.047296 units=km
New Line.214339969$214339912 phases=1 Bus1=214339971.3 Bus2=214339914.3 LineCode=1/0_CLP_1PH_16KV_1 Length=0.088887 units=km
New Line.P5482824-2$214340243 phases=1 Bus1=27048796.2 Bus2=214340246.2 LineCode=1/0_CLP_1PH_16KV_1 Length=0.176666 units=km
New Line.ND15912980$ND222610462 phases=3 Bus1=15912980.1.2.3 Bus2=222610462.1.2.3 LineCode=1/0_CLP_3PH_16KV_3 Length=0.003698 units=km
New Line.ND238163028$RCS5758-3 phases=3 Bus1=238163028.1.2.3 Bus2=238162569.1.2.3 LineCode=750_CLP_3PH_16KV_3 Length=0.4806 units=km
New Line.ND238163028$V5709527PT phases=3 Bus1=238163028.1.2.3 Bus2=238163045.1.2.3 LineCode=1/0_CLP_3PH_16KV_3 Length=0.000825 units=km
New Line.148288531$27083631 phases=1 Bus1=148288533.3 Bus2=27083633.3 LineCode=1/0_CLP_1PH_16KV_1 Length=0.090292 units=km
New Line.P5491121-1$P5491122-1 phases=1 Bus1=27084283.1 Bus2=27083873.1 LineCode=1/0_CLP_1PH_16KV_1 Length=0.180132 units=km
New Line.P5491119-1$P5491120-2 phases=1 Bus1=27084211.1 Bus2=27084148.1 LineCode=1/0_CLP_1PH_16KV_1 Length=0.149076 units=km
New Line.214339884$ND27113493 phases=1 Bus1=214339886.3 Bus2=27113493.3 LineCode=1/0_CLP_1PH_16KV_1 Length=0.003207 units=km
New Line.BS417X-1$ND141015389 phases=1 Bus1=25036966.1 Bus2=141015389.1 LineCode=350_CLP_1PH_16KV_1 Length=0.02361 units=km
New Line.ND222610462$P5381194-A phases=3 Bus1=222610462.1.2.3 Bus2=153249899.1.2.3 LineCode=1/0_CLP_3PH_16KV_3 Length=0.439755 units=km
New Line.PME2671-1$P5382672-2 phases=1 Bus1=15906906.1 Bus2=15906038.1 LineCode=2_CLP_1PH_16KV_1 Length=0.084431 units=km
New Line.POS9017-1$P5399018-2 phases=1 Bus1=15906856.2 Bus2=15906326.2 LineCode=2_CLP_1PH_16KV_1 Length=0.053322 units=km
New Line.241724279$PME5147-1 phases=1 Bus1=241724282.1 Bus2=15906511.1 LineCode=1/0_CLP_1PH_16KV_1 Length=0.001561 units=km
New Line.169005031$PME419-1 phases=1 Bus1=169005034.1 Bus2=15908643.1 LineCode=2_CLP_1PH_16KV_1 Length=0.002242 units=km
New Line.B5482802-2$B5370924-2 phases=1 Bus1=15909572.1 Bus2=15909500.1 LineCode=2_CLP_1PH_16KV_1 Length=0.217866 units=km
New Line.231163541$ND15922202 phases=1 Bus1=231163543.2 Bus2=15922202.2 LineCode=2_CLP_1PH_16KV_1 Length=0.005966 units=km
New Line.ND173117580$ND173117497 phases=1 Bus1=173117580.1 Bus2=173117497.1 LineCode=2_CLP_1PH_16KV_1 Length=0.019605 units=km
New Line.173117504$ND173117580 phases=1 Bus1=173117580.1 Bus2=173117506.1 LineCode=2_CLP_1PH_16KV_1 Length=0.079772 units=km
New Line.214302372$P5399026-1 phases=1 Bus1=15905885.1 Bus2=214302375.1 LineCode=2_CLP_1PH_16KV_1 Length=0.000863 units=km
New Line.ND222610462$222610470 phases=1 Bus1=222610462.1 Bus2=222610472.1 LineCode=1/0_CLP_1PH_16KV_1 Length=0.014327 units=km
New Line.ND148288869$P5469830-2 phases=1 Bus1=148288869.1 Bus2=27049732.1 LineCode=1/0_CLP_1PH_16KV_1 Length=0.088186 units=km
New Line.ND148288869$P5469831-1 phases=1 Bus1=148288869.1 Bus2=27049795.1 LineCode=1/0_CLP_1PH_16KV_1 Length=0.11606 units=km
New Line.214340136$P5447672-2 phases=1 Bus1=214340138.2 Bus2=27050596.2 LineCode=1/0_CLP_1PH_16KV_1 Length=0.053247 units=km
New Line.ND27113493$P5483435-2 phases=1 Bus1=27113493.3 Bus2=27051888.3 LineCode=1/0_CLP_1PH_16KV_1 Length=0.072596 units=km
New Line.P5483433-2$ND27113493 phases=1 Bus1=27113493.3 Bus2=27051960.3 LineCode=1/0_CLP_1PH_16KV_1 Length=0.080773 units=km
New Line.P5491087-1$27083539 phases=1 Bus1=27083565.3 Bus2=27083542.3 LineCode=1/0_CLP_1PH_16KV_1 Length=0.00226 units=km
New Line.ND15922202$P5574370-1 phases=1 Bus1=15922202.2 Bus2=15908693.2 LineCode=2_CLP_1PH_16KV_1 Length=0.120507 units=km
New Line.ND15922202$ND15912689 phases=1 Bus1=15922202.2 Bus2=15912689.2 LineCode=2_CLP_1PH_16KV_1 Length=0.088731 units=km
New Line.173117449$ND173117497 phases=1 Bus1=173117497.1 Bus2=173117451.1 LineCode=2_CLP_1PH_16KV_1 Length=0.138104 units=km
New Line.214340243$214340268 phases=1 Bus1=214340245.2 Bus2=214340270.2 LineCode=1/0_CLP_1PH_16KV_1 Length=0.0743 units=km
New Line.P5409891-2$241103507 phases=1 Bus1=15905606.1 Bus2=241103509.1 LineCode=1/0_CLP_1PH_16KV_1 Length=0.046205 units=km
New Line.B5026330-1$ND141015389 phases=1 Bus1=141015389.1 Bus2=25037228.1 LineCode=350_CLP_1PH_16KV_1 Length=0.201281 units=km
New Line.B5026150-1$ND141015389 phases=1 Bus1=141015389.1 Bus2=25037372.1 LineCode=350_CLP_1PH_16KV_1 Length=0.043443 units=km
New Line.B5026327-2$ND141015389 phases=1 Bus1=141015389.1 Bus2=25037525.1 LineCode=350_CLP_1PH_16KV_1 Length=0.12569 units=km
New Line.25091824$25091834 phases=3 Bus1=25091827.1.2.3 Bus2=25091837.1.2.3 LineCode=1/0_CLP_3PH_16KV_3 Length=0.015854 units=km
New Line.214339912$P5483431-2 phases=1 Bus1=214339915.3 Bus2=27052032.3 LineCode=1/0_CLP_1PH_16KV_1 Length=0.003249 units=km
New Line.27083631$P5491089-2 phases=1 Bus1=27083634.3 Bus2=27083656.3 LineCode=1/0_CLP_1PH_16KV_1 Length=0.002192 units=km
New Line.222610470$POS3924-1 phases=1 Bus1=222610473.1 Bus2=15906461.1 LineCode=1/0_CLP_1PH_16KV_1 Length=0.001136 units=km
New Line.ND15912689$P5475172-1 phases=1 Bus1=15912689.2 Bus2=15907947.2 LineCode=2_CLP_1PH_16KV_1 Length=0.081038 units=km
New Line.ND15912689$P5475173-2 phases=1 Bus1=15912689.2 Bus2=15908028.2 LineCode=2_CLP_1PH_16KV_1 Length=0.105267 units=km
New Line.P5470053-2$168991498 phases=1 Bus1=15909137.2 Bus2=168991501.2 LineCode=2_CLP_1PH_16KV_1 Length=0.068433 units=km
New Line.169005058$PME419-1 phases=1 Bus1=15908644.1 Bus2=169005061.1 LineCode=2_CLP_1PH_16KV_1 Length=0.002454 units=km
New Line.214302372$214302424 phases=1 Bus1=214302374.1 Bus2=214302426.1 LineCode=2_CLP_1PH_16KV_1 Length=0.169175 units=km
New Line.PME5147-1$241724247 phases=1 Bus1=15906512.1 Bus2=241724250.1 LineCode=1/0_CLP_1PH_16KV_1 Length=0.026168 units=km
New Line.P5482983-1$173117504 phases=1 Bus1=173117507.1 Bus2=27051274.1 LineCode=2_CLP_1PH_16KV_1 Length=0.001345 units=km
New Line.27083539$27083713 phases=1 Bus1=27083541.3 Bus2=27083715.3 LineCode=1/0_CLP_1PH_16KV_1 Length=0.158086 units=km
New Line.P5382672-1$P5382673-2 phases=1 Bus1=15906029.1 Bus2=15905966.1 LineCode=2_CLP_1PH_16KV_1 Length=0.159221 units=km
New Line.P5399018-1$P5399019-1 phases=1 Bus1=15906317.2 Bus2=15906245.2 LineCode=2_CLP_1PH_16KV_1 Length=0.183412 units=km
New Line.P5381194-B$FC5587-1 phases=1 Bus1=153249882.3 Bus2=15907678.3 LineCode=1/0_CLP_1PH_16KV_1 Length=0.085507 units=km
New Line.241103507$241103534 phases=1 Bus1=241103510.1 Bus2=241103537.1 LineCode=1/0_CLP_1PH_16KV_1 Length=0.023882 units=km
New Line.25091834$PME8915-4 phases=3 Bus1=25091836.1.2.3 Bus2=25073340.1.2.3 LineCode=1/0_CLP_3PH_16KV_3 Length=0.045491 units=km
New Line.214340268$P5482825-1 phases=1 Bus1=214340271.2 Bus2=27048931.2 LineCode=1/0_CLP_1PH_16KV_1 Length=0.002883 units=km
New Line.173117449$P5482984-2 phases=1 Bus1=173117452.1 Bus2=27051211.1 LineCode=2_CLP_1PH_16KV_1 Length=0.00238 units=km
New Line.214302424$P5399027-2 phases=1 Bus1=214302427.1 Bus2=15905750.1 LineCode=2_CLP_1PH_16KV_1 Length=0.001396 units=km
New Line.P5475420-1$169005058 phases=1 Bus1=169005060.1 Bus2=15908912.1 LineCode=2_CLP_1PH_16KV_1 Length=0.061073 units=km
New Line.168991498$P5470054-1 phases=1 Bus1=168991500.2 Bus2=15909200.2 LineCode=2_CLP_1PH_16KV_1 Length=0.026284 units=km
New Line.241724247$ND15922289 phases=1 Bus1=241724249.1 Bus2=15922289.1 LineCode=1/0_CLP_1PH_16KV_1 Length=0.003283 units=km
New Line.POS3924-1$222610497 phases=1 Bus1=15906462.1 Bus2=222610500.1 LineCode=1/0_CLP_1PH_16KV_1 Length=0.08754 units=km
New Line.B5026648-1$B5026330-2 phases=1 Bus1=25037237.1 Bus2=25037300.1 LineCode=350_CLP_1PH_16KV_1 Length=0.215439 units=km
New Line.B5026150-2$B5026645-1 phases=1 Bus1=25037381.1 Bus2=25037444.1 LineCode=350_CLP_1PH_16KV_1 Length=0.204854 units=km
New Line.B5026327-1$B5026328-2 phases=1 Bus1=25037516.1 Bus2=25037597.1 LineCode=350_CLP_1PH_16KV_1 Length=0.145518 units=km
New Line.27083713$P5491088-2 phases=1 Bus1=27083716.3 Bus2=27083738.3 LineCode=1/0_CLP_1PH_16KV_1 Length=0.003036 units=km
New Line.P5475173-1$P5475174-2 phases=1 Bus1=15908019.2 Bus2=15908100.2 LineCode=2_CLP_1PH_16KV_1 Length=0.217194 units=km
New Line.FC5587-1$ND15922481 phases=1 Bus1=15907679.3 Bus2=15922481.3 LineCode=1/0_CLP_1PH_16KV_1 Length=0.006442 units=km
New Line.241103534$222412875 phases=1 Bus1=241103536.1 Bus2=222412877.1 LineCode=1/0_CLP_1PH_16KV_1 Length=0.076741 units=km
New Line.ND241724240$ND15922289 phases=1 Bus1=15922289.1 Bus2=241724240.1 LineCode=1/0_CLP_1PH_16KV_1 Length=0.01573 units=km
New Line.P5395145-2$ND241724240 phases=1 Bus1=241724240.1 Bus2=15905315.1 LineCode=1/0_CLP_1PH_16KV_1 Length=0.031521 units=km
New Line.P5399019-2$P5399020-1 phases=1 Bus1=15906254.2 Bus2=15906173.2 LineCode=2_CLP_1PH_16KV_1 Length=0.156121 units=km
New Line.P5381337-2$ND241724240 phases=1 Bus1=241724240.1 Bus2=15906792.1 LineCode=1/0_CLP_1PH_16KV_1 Length=0.081013 units=km
New Line.ND15922481$P5472103-2 phases=1 Bus1=15922481.3 Bus2=15907740.3 LineCode=1/0_CLP_1PH_16KV_1 Length=0.082408 units=km
New Line.222610497$ND15922529 phases=1 Bus1=222610499.1 Bus2=15922529.1 LineCode=1/0_CLP_1PH_16KV_1 Length=0.135826 units=km
New Line.ND15922481$ND162695660 phases=1 Bus1=15922481.3 Bus2=162695660.3 LineCode=2_CLP_1PH_16KV_1 Length=0.181904 units=km
New Line.PME8915-2$25075041 phases=1 Bus1=25073350.2 Bus2=25075046.2 LineCode=2_CLP_1PH_16KV_1 Length=0.350092 units=km
New Line.PME8915-3$141015745 phases=1 Bus1=25073359.2 Bus2=141015747.2 LineCode=2_CLP_1PH_16KV_1 Length=0.076286 units=km
New Line.ND15922529$P5491135-2 phases=1 Bus1=15922529.1 Bus2=15896377.1 LineCode=1/0_CLP_1PH_16KV_1 Length=0.077989 units=km
New Line.P5403926-2$ND15922529 phases=1 Bus1=15922529.1 Bus2=15907036.1 LineCode=1/0_CLP_1PH_16KV_1 Length=0.045689 units=km
New Line.ND162695660$P5472107-1 phases=1 Bus1=162695660.3 Bus2=15907462.3 LineCode=2_CLP_1PH_16KV_1 Length=0.014824 units=km
New Line.P5475420-2$P5475421-2 phases=1 Bus1=15908921.1 Bus2=15908849.1 LineCode=2_CLP_1PH_16KV_1 Length=0.205826 units=km
New Line.P5470055-1$P5470054-2 phases=1 Bus1=15909209.2 Bus2=15909272.2 LineCode=2_CLP_1PH_16KV_1 Length=0.097575 units=km
New Line.ND162695660$ND15923072 phases=1 Bus1=162695660.3 Bus2=15923072.3 LineCode=2_CLP_1PH_16KV_1 Length=0.265266 units=km
New Line.222412875$P5401582-A phases=1 Bus1=222412878.1 Bus2=222412781.1 LineCode=1/0_CLP_1PH_16KV_1 Length=0.001495 units=km
New Line.B5026645-2$B5026646-1 phases=1 Bus1=25037453.1 Bus2=25037012.1 LineCode=350_CLP_1PH_16KV_1 Length=0.188529 units=km
New Line.B5026648-2$B5026647-1 phases=1 Bus1=25037309.1 Bus2=25037084.1 LineCode=350_CLP_1PH_16KV_1 Length=0.262637 units=km
New Line.B5026328-1$B5026329-2 phases=1 Bus1=25037588.1 Bus2=25037165.1 LineCode=350_CLP_1PH_16KV_1 Length=0.161301 units=km
New Line.PME8915-1$ND25092411 phases=1 Bus1=25073368.1 Bus2=25092411.1 LineCode=2_CLP_1PH_16KV_1 Length=0.113774 units=km
New Line.25075041$ND141015625 phases=1 Bus1=25075047.2 Bus2=141015625.2 LineCode=2_CLP_1PH_16KV_1 Length=0.002008 units=km
New Line.ND25092411$141015838 phases=1 Bus1=25092411.1 Bus2=141015840.1 LineCode=2_CLP_1PH_16KV_1 Length=0.108423 units=km
New Line.ND15923072$P5446768-2 phases=1 Bus1=15923072.3 Bus2=15906964.3 LineCode=2_CLP_1PH_16KV_1 Length=0.482158 units=km
New Line.ND15923072$P5472108-1 phases=1 Bus1=15923072.3 Bus2=15907606.3 LineCode=2_CLP_1PH_16KV_1 Length=0.327758 units=km
New Line.P5475174-1$P5475175-1 phases=1 Bus1=15908091.2 Bus2=15908163.2 LineCode=2_CLP_1PH_16KV_1 Length=0.170722 units=km
New Line.ND25092411$25074601 phases=1 Bus1=25092411.1 Bus2=25074603.1 LineCode=2_CLP_1PH_16KV_1 Length=0.133012 units=km
New Line.ND25092411$25074867 phases=1 Bus1=25092411.1 Bus2=25074869.1 LineCode=2_CLP_1PH_16KV_1 Length=0.100614 units=km
New Line.ND141015625$141016013 phases=1 Bus1=141015625.2 Bus2=141016016.2 LineCode=2_CLP_1PH_16KV_1 Length=0.001539 units=km
New Line.P5399020-2$P5399021-1 phases=1 Bus1=15906182.2 Bus2=15906101.2 LineCode=2_CLP_1PH_16KV_1 Length=0.192601 units=km
New Line.P5381337-1$P5381299-2 phases=1 Bus1=15906783.1 Bus2=15906720.1 LineCode=1/0_CLP_1PH_16KV_1 Length=0.123841 units=km
New Line.P5472103-1$ND190653802 phases=1 Bus1=15907731.3 Bus2=190653802.3 LineCode=1/0_CLP_1PH_16KV_1 Length=0.015644 units=km
New Line.P5395145-1$214339997 phases=1 Bus1=15905306.1 Bus2=214339999.1 LineCode=1/0_CLP_1PH_16KV_1 Length=0.102076 units=km
New Line.141015745$P5496983-1 phases=1 Bus1=141015748.2 Bus2=25074453.2 LineCode=1/0_CLP_1PH_16KV_1 Length=0.001933 units=km
New Line.ND141015625$P5496993-2 phases=1 Bus1=141015625.2 Bus2=25075069.2 LineCode=2_CLP_1PH_16KV_1 Length=0.00293 units=km
New Line.P5403926-1$P5403927-1 phases=1 Bus1=15907027.1 Bus2=15907099.1 LineCode=1/0_CLP_1PH_16KV_1 Length=0.076613 units=km
New Line.P5472107-2$P5472106-1 phases=1 Bus1=15907471.3 Bus2=15907534.3 LineCode=2_CLP_1PH_16KV_1 Length=0.069507 units=km
New Line.ND190653802$P5472104-1 phases=1 Bus1=190653802.3 Bus2=15907803.3 LineCode=1/0_CLP_1PH_16KV_1 Length=0.136087 units=km
New Line.P5472105-2$ND190653802 phases=1 Bus1=190653802.3 Bus2=15907884.3 LineCode=1/0_CLP_1PH_16KV_1 Length=0.202256 units=km
New Line.P5475421-1$P5475422-1 phases=1 Bus1=15908840.1 Bus2=15908765.1 LineCode=2_CLP_1PH_16KV_1 Length=0.119998 units=km
New Line.B5026646-2$204537514 phases=1 Bus1=25037021.1 Bus2=204537516.1 LineCode=350_CLP_1PH_16KV_1 Length=0.095214 units=km
New Line.P5401582-B$222412902 phases=1 Bus1=222412799.1 Bus2=222412905.1 LineCode=1/0_CLP_1PH_16KV_1 Length=0.002043 units=km
New Line.25074601$P5496988-2 phases=1 Bus1=25074604.1 Bus2=25074626.1 LineCode=2_CLP_1PH_16KV_1 Length=0.002705 units=km
New Line.P5496989-1$25074867 phases=1 Bus1=25074870.1 Bus2=25074883.1 LineCode=2_CLP_1PH_16KV_1 Length=0.004431 units=km
New Line.141015838$P5496987-1 phases=1 Bus1=141015841.1 Bus2=25074965.1 LineCode=2_CLP_1PH_16KV_1 Length=0.00475 units=km
New Line.214339997$P5395144-2 phases=1 Bus1=214340000.1 Bus2=15905243.1 LineCode=1/0_CLP_1PH_16KV_1 Length=0.00312 units=km
New Line.P5475175-2$P5475176-2 phases=1 Bus1=15908172.2 Bus2=15908244.2 LineCode=2_CLP_1PH_16KV_1 Length=0.179836 units=km
New Line.141016013$ND25120562 phases=1 Bus1=141016015.2 Bus2=25120562.2 LineCode=2_CLP_1PH_16KV_1 Length=0.099119 units=km
New Line.ND25120562$141015913 phases=1 Bus1=25120562.2 Bus2=141015915.2 LineCode=2_CLP_1PH_16KV_1 Length=0.105997 units=km
New Line.P5496993-1$141015988 phases=1 Bus1=25075060.2 Bus2=141015991.2 LineCode=2_CLP_1PH_16KV_1 Length=0.002712 units=km
New Line.P5399022-2$P5399021-2 phases=1 Bus1=15906110.2 Bus2=15908388.2 LineCode=2_CLP_1PH_16KV_1 Length=0.092544 units=km
New Line.P5401584-1$222412902 phases=1 Bus1=222412904.1 Bus2=15909635.1 LineCode=1/0_CLP_1PH_16KV_1 Length=0.31396 units=km
New Line.P5496983-2$25074437 phases=1 Bus1=25074462.2 Bus2=25074440.2 LineCode=1/0_CLP_1PH_16KV_1 Length=0.003642 units=km
New Line.ND25120562$25075313 phases=1 Bus1=25120562.2 Bus2=25075315.2 LineCode=2_CLP_1PH_16KV_1 Length=0.104559 units=km
New Line.ND25120562$25075395 phases=1 Bus1=25120562.2 Bus2=25075397.2 LineCode=2_CLP_1PH_16KV_1 Length=0.058153 units=km
New Line.204537514$P5497002-1 phases=1 Bus1=204537517.1 Bus2=25089941.1 LineCode=350_CLP_1PH_16KV_1 Length=0.008266 units=km
New Line.P5496989-2$141015863 phases=1 Bus1=25074892.1 Bus2=141015866.1 LineCode=2_CLP_1PH_16KV_1 Length=0.003757 units=km
New Line.P5627627-2$P5403927-2 phases=1 Bus1=15907108.1 Bus2=15907180.1 LineCode=1/0_CLP_1PH_16KV_1 Length=0.095142 units=km
New Line.25074437$141015786 phases=1 Bus1=25074439.2 Bus2=141015788.2 LineCode=2_CLP_1PH_16KV_1 Length=0.101457 units=km
New Line.P5475176-1$168991550 phases=1 Bus1=15908235.2 Bus2=168991552.2 LineCode=2_CLP_1PH_16KV_1 Length=0.137028 units=km
New Line.141015988$25075126 phases=1 Bus1=141015990.2 Bus2=25075128.2 LineCode=2_CLP_1PH_16KV_1 Length=0.118985 units=km
New Line.141015913$P5496999-2 phases=1 Bus1=141015916.2 Bus2=25075256.2 LineCode=2_CLP_1PH_16KV_1 Length=0.003523 units=km
New Line.25075313$P5496998-1 phases=1 Bus1=25075316.2 Bus2=25075329.2 LineCode=2_CLP_1PH_16KV_1 Length=0.005472 units=km
New Line.25075395$P5496997-2 phases=1 Bus1=25075398.2 Bus2=25075420.2 LineCode=2_CLP_1PH_16KV_1 Length=0.001771 units=km
New Line.141015863$141015888 phases=1 Bus1=141015865.1 Bus2=141015890.1 LineCode=2_CLP_1PH_16KV_1 Length=0.070091 units=km
New Line.P5399023-1$P5399022-1 phases=1 Bus1=15908379.2 Bus2=15908523.2 LineCode=2_CLP_1PH_16KV_1 Length=0.256779 units=km
New Line.P5401584-2$P5401585-1 phases=1 Bus1=15909644.1 Bus2=15909707.1 LineCode=1/0_CLP_1PH_16KV_1 Length=0.075154 units=km
New Line.P5497002-2$204537541 phases=1 Bus1=25089950.1 Bus2=204537544.1 LineCode=350_CLP_1PH_16KV_1 Length=0.001518 units=km
New Line.P5627627-1$P5403930-2 phases=1 Bus1=15907171.1 Bus2=15907255.1 LineCode=1/0_CLP_1PH_16KV_1 Length=0.316339 units=km
New Line.168991550$P5475177-2 phases=1 Bus1=168991553.2 Bus2=15908316.2 LineCode=2_CLP_1PH_16KV_1 Length=0.002623 units=km
New Line.141015786$P5496984-1 phases=1 Bus1=141015789.2 Bus2=25074361.2 LineCode=2_CLP_1PH_16KV_1 Length=0.003523 units=km
New Line.P5496994-2$25075126 phases=1 Bus1=25075129.2 Bus2=25075161.2 LineCode=2_CLP_1PH_16KV_1 Length=0.005166 units=km
New Line.P5496999-1$ND141015696 phases=1 Bus1=25075247.2 Bus2=141015696.2 LineCode=2_CLP_1PH_16KV_1 Length=0.00715 units=km
New Line.204537541$204537568 phases=1 Bus1=204537543.1 Bus2=204537570.1 LineCode=350_CLP_1PH_16KV_1 Length=0.183275 units=km
New Line.141015888$P5496990-1 phases=1 Bus1=141015891.1 Bus2=25074791.1 LineCode=2_CLP_1PH_16KV_1 Length=0.002942 units=km
New Line.ND141015696$141015938 phases=1 Bus1=141015696.2 Bus2=141015941.2 LineCode=2_CLP_1PH_16KV_1 Length=0.002964 units=km
New Line.ND141015696$141015963 phases=1 Bus1=141015696.2 Bus2=141015966.2 LineCode=2_CLP_1PH_16KV_1 Length=0.015274 units=km
New Line.P5399023-2$P5399024-2 phases=1 Bus1=15908532.2 Bus2=15908460.2 LineCode=2_CLP_1PH_16KV_1 Length=0.159132 units=km
New Line.P5403930-1$P5403931-1 phases=1 Bus1=15907246.1 Bus2=15907318.1 LineCode=1/0_CLP_1PH_16KV_1 Length=0.195779 units=km
New Line.204537568$204537593 phases=1 Bus1=204537571.1 Bus2=204537596.1 LineCode=350_CLP_1PH_16KV_1 Length=0.018685 units=km
New Line.P5496984-2$25074263 phases=1 Bus1=25074370.2 Bus2=25074266.2 LineCode=2_CLP_1PH_16KV_1 Length=0.003948 units=km
New Line.P5496994-1$25075136 phases=1 Bus1=25075152.2 Bus2=25075139.2 LineCode=2_CLP_1PH_16KV_1 Length=0.001775 units=km
New Line.P5496990-2$25074775 phases=1 Bus1=25074800.1 Bus2=25074778.1 LineCode=2_CLP_1PH_16KV_1 Length=0.005009 units=km
New Line.141015938$25075477 phases=1 Bus1=141015940.2 Bus2=25075479.2 LineCode=2_CLP_1PH_16KV_1 Length=0.096744 units=km
New Line.141015963$25075559 phases=1 Bus1=141015965.2 Bus2=25075561.2 LineCode=2_CLP_1PH_16KV_1 Length=0.114352 units=km
New Line.25074263$141015813 phases=1 Bus1=25074265.2 Bus2=141015815.2 LineCode=2_CLP_1PH_16KV_1 Length=0.06833 units=km
New Line.204537593$204537618 phases=1 Bus1=204537595.1 Bus2=204537620.1 LineCode=350_CLP_1PH_16KV_1 Length=0.099337 units=km
New Line.25075136$25074519 phases=1 Bus1=25075138.2 Bus2=25074521.2 LineCode=2_CLP_1PH_16KV_1 Length=0.139751 units=km
New Line.P5403931-2$P5403932-1 phases=1 Bus1=15907327.1 Bus2=15907390.1 LineCode=1/0_CLP_1PH_16KV_1 Length=0.086109 units=km
New Line.1539078E$1620565E phases=2 Bus1=25055898.1.3 Bus2=25055923.1.3 LineCode=1/0_ACSR_2PH_16KV_2 Length=0.03934 units=km
New Line.1620565E$1620566E phases=2 Bus1=25055923.1.3 Bus2=25038081.1.3 LineCode=1/0_ACSR_2PH_16KV_2 Length=0.049014 units=km
New Line.1620566E$1620567E phases=2 Bus1=25038081.1.3 Bus2=172397604.1.3 LineCode=1/0_ACSR_2PH_16KV_2 Length=0.042786 units=km
New Line.1620567E$1620569E phases=2 Bus1=172397604.1.3 Bus2=25056180.1.3 LineCode=1/0_ACSR_2PH_16KV_2 Length=0.080654 units=km
New Line.25074775$25074683 phases=1 Bus1=25074777.1 Bus2=25074685.1 LineCode=2_CLP_1PH_16KV_1 Length=0.161585 units=km
New Line.25075477$P5497000-2 phases=1 Bus1=25075480.2 Bus2=25075502.2 LineCode=2_CLP_1PH_16KV_1 Length=0.004089 units=km
New Line.25075559$P5497001-2 phases=1 Bus1=25075562.2 Bus2=25075584.2 LineCode=2_CLP_1PH_16KV_1 Length=0.004123 units=km
New Line.204537618$P5709604-2 phases=1 Bus1=204537621.1 Bus2=204537456.1 LineCode=350_CLP_1PH_16KV_1 Length=0.005877 units=km
New Line.141015813$P5496985-1 phases=1 Bus1=141015816.2 Bus2=25074279.2 LineCode=2_CLP_1PH_16KV_1 Length=0.009105 units=km
New Line.25074519$P5496995-2 phases=1 Bus1=25074522.2 Bus2=25074544.2 LineCode=2_CLP_1PH_16KV_1 Length=0.00279 units=km
New Line.25074683$P5496991-1 phases=1 Bus1=25074686.1 Bus2=25074699.1 LineCode=2_CLP_1PH_16KV_1 Length=0.003638 units=km
New Line.GS1771-2$0190080 phases=3 Bus1=107646259.1.2.3 Bus2=108872474.1.2.3 LineCode=1/0_CLP_3PH_16KV_3 Length=0.127878 units=km
New Line.GS1771-1$ND187968268 phases=3 Bus1=107646251.1.2.3 Bus2=187968268.1.2.3 LineCode=1000_JCN_3PH_16KV_3 Length=0.639215 units=km
New Line.ND187968268$RCS1593-2 phases=3 Bus1=187968268.1.2.3 Bus2=27085539.1.2.3 LineCode=750_CLP_3PH_16KV_3 Length=0.010129 units=km
New Line.ND187968268$ND27113275 phases=3 Bus1=187968268.1.2.3 Bus2=27113275.1.2.3 LineCode=350_CLP_3PH_16KV_3 Length=0.324706 units=km
New Line.ND27113275$ND148288348 phases=3 Bus1=27113275.1.2.3 Bus2=148288348.1.2.3 LineCode=350_CLP_3PH_16KV_3 Length=0.681365 units=km
New Line.ND27113275$P5482904-1 phases=2 Bus1=27113275.2.3 Bus2=27085450.2.3 LineCode=2_CLP_2PH_16KV_2 Length=0.00644 units=km
New Line.ND148288348$PME8884-1 phases=3 Bus1=148288348.1.2.3 Bus2=27084638.1.2.3 LineCode=350_CLP_3PH_16KV_3 Length=0.243088 units=km
New Line.FC8921-1$PME8884-4 phases=1 Bus1=27084620.1 Bus2=27083945.1 LineCode=1/0_CLP_1PH_16KV_1 Length=0.075083 units=km
New Line.PME8884-3$ND148288370 phases=3 Bus1=27084611.1.2.3 Bus2=148288370.1.2.3 LineCode=1/0_CLP_3PH_16KV_3 Length=0.06034 units=km
New Line.PME8884-2$ND148288684 phases=3 Bus1=27084629.1.2.3 Bus2=148288684.1.2.3 LineCode=350_CLP_3PH_16KV_3 Length=0.017696 units=km
New Line.FC8921-1$196665298 phases=1 Bus1=27083946.1 Bus2=196665300.1 LineCode=1/0_CLP_1PH_16KV_1 Length=0.069307 units=km
New Line.ND148288684$PME4598-1 phases=3 Bus1=148288684.1.2.3 Bus2=27051052.1.2.3 LineCode=350_CLP_3PH_16KV_3 Length=0.886196 units=km
New Line.P5483438-1$ND148288370 phases=1 Bus1=148288370.3 Bus2=27082585.3 LineCode=1/0_CLP_1PH_16KV_1 Length=0.124469 units=km
...

! Switches
New Line.HOSS$ERRINGER_PS0414$PS0414 phases=3 Bus1=25091075.1.2.3 Bus2=-77777725091075.1.2.3 switch=y r1=0.001 x1=0.001 r0=0.001 x0=0.001 Length=0.001 units=km
New Line.HOSS$APPLETON_RCS4134$RCS4134 phases=3 Bus1=174810079.1.2.3 Bus2=-777777174810079.1.2.3 switch=y r1=0.001 x1=0.001 r0=0.001 x0=0.001 Length=0.001 units=km
New Line.GS1769-2$105576400 phases=3 Bus1=105576379.1.2.3 Bus2=105576373.1.2.3 switch=y r1=0.001 x1=0.001 r0=0.001 x0=0.001 Length=0.001 units=km
New Line.105576384$GS1769-2 phases=3 Bus1=105576373.1.2.3 Bus2=105576372.1.2.3 switch=y r1=0.001 x1=0.001 r0=0.001 x0=0.001 Length=0.001 units=km
New Line.223216694$223216686 phases=3 Bus1=223216668.1.2.3 Bus2=223216669.1.2.3 switch=y r1=0.001 x1=0.001 r0=0.001 x0=0.001 Length=0.001 units=km
New Line.223216686$223216702 phases=3 Bus1=223216669.1.2.3 Bus2=223216675.1.2.3 switch=y r1=0.001 x1=0.001 r0=0.001 x0=0.001 Length=0.001 units=km
New Line.223216702$223216710 phases=3 Bus1=223216675.1.2.3 Bus2=223216681.1.2.3 switch=y r1=0.001 x1=0.001 r0=0.001 x0=0.001 Length=0.001 units=km
New Line.107646257$107646265 phases=3 Bus1=107646244.1.2.3 Bus2=107646238.1.2.3 switch=y r1=0.001 x1=0.001 r0=0.001 x0=0.001 Length=0.001 units=km
New Line.107646249$107646257 phases=3 Bus1=107646238.1.2.3 Bus2=107646237.1.2.3 switch=y r1=0.001 x1=0.001 r0=0.001 x0=0.001 Length=0.001 units=km
New Line.148288531 phases=1 Bus1=148288534.3 Bus2=148288533.3 switch=y r1=0.001 x1=0.001 r0=0.001 x0=0.001 Length=0.001 units=km
New Line.168991525 phases=1 Bus1=168991527.2 Bus2=168991528.2 switch=y r1=0.001 x1=0.001 r0=0.001 x0=0.001 Length=0.001 units=km
New Line.173117352 phases=1 Bus1=173117355.1 Bus2=173117354.1 switch=y r1=0.001 x1=0.001 r0=0.001 x0=0.001 Length=0.001 units=km
New Line.214339884 phases=1 Bus1=214339887.3 Bus2=214339886.3 switch=y r1=0.001 x1=0.001 r0=0.001 x0=0.001 Length=0.001 units=km
New Line.214339969 phases=1 Bus1=214339972.3 Bus2=214339971.3 switch=y r1=0.001 x1=0.001 r0=0.001 x0=0.001 Length=0.001 units=km
New Line.169005031 phases=1 Bus1=169005033.1 Bus2=169005034.1 switch=y r1=0.001 x1=0.001 r0=0.001 x0=0.001 Length=0.001 units=km
New Line.214340136 phases=1 Bus1=214340139.2 Bus2=214340138.2 switch=y r1=0.001 x1=0.001 r0=0.001 x0=0.001 Length=0.001 units=km
New Line.231163541 phases=1 Bus1=231163544.2 Bus2=231163543.2 switch=y r1=0.001 x1=0.001 r0=0.001 x0=0.001 Length=0.001 units=km
New Line.241724279 phases=1 Bus1=241724281.1 Bus2=241724282.1 switch=y r1=0.001 x1=0.001 r0=0.001 x0=0.001 Length=0.001 units=km
New Line.214339912 phases=1 Bus1=214339914.3 Bus2=214339915.3 switch=y r1=0.001 x1=0.001 r0=0.001 x0=0.001 Length=0.001 units=km
New Line.214340243 phases=1 Bus1=214340246.2 Bus2=214340245.2 switch=y r1=0.001 x1=0.001 r0=0.001 x0=0.001 Length=0.001 units=km
New Line.25091824 phases=3 Bus1=141015499.1.2.3 Bus2=25091827.1.2.3 switch=y r1=0.001 x1=0.001 r0=0.001 x0=0.001 Length=0.001 units=km
New Line.27083631 phases=1 Bus1=27083633.3 Bus2=27083634.3 switch=y r1=0.001 x1=0.001 r0=0.001 x0=0.001 Length=0.001 units=km
New Line.173117504 phases=1 Bus1=173117506.1 Bus2=173117507.1 switch=y r1=0.001 x1=0.001 r0=0.001 x0=0.001 Length=0.001 units=km
New Line.214302372 phases=1 Bus1=214302375.1 Bus2=214302374.1 switch=y r1=0.001 x1=0.001 r0=0.001 x0=0.001 Length=0.001 units=km
New Line.222610470 phases=1 Bus1=222610472.1 Bus2=222610473.1 switch=y r1=0.001 x1=0.001 r0=0.001 x0=0.001 Length=0.001 units=km
New Line.27083539 phases=1 Bus1=27083542.3 Bus2=27083541.3 switch=y r1=0.001 x1=0.001 r0=0.001 x0=0.001 Length=0.001 units=km
New Line.173117449 phases=1 Bus1=173117451.1 Bus2=173117452.1 switch=y r1=0.001 x1=0.001 r0=0.001 x0=0.001 Length=0.001 units=km
New Line.214340268 phases=1 Bus1=214340270.2 Bus2=214340271.2 switch=y r1=0.001 x1=0.001 r0=0.001 x0=0.001 Length=0.001 units=km
New Line.241103507 phases=1 Bus1=241103509.1 Bus2=241103510.1 switch=y r1=0.001 x1=0.001 r0=0.001 x0=0.001 Length=0.001 units=km
New Line.25091834 phases=3 Bus1=25091837.1.2.3 Bus2=25091836.1.2.3 switch=y r1=0.001 x1=0.001 r0=0.001 x0=0.001 Length=0.001 units=km
New Line.168991498 phases=1 Bus1=168991501.2 Bus2=168991500.2 switch=y r1=0.001 x1=0.001 r0=0.001 x0=0.001 Length=0.001 units=km
New Line.169005058 phases=1 Bus1=169005061.1 Bus2=169005060.1 switch=y r1=0.001 x1=0.001 r0=0.001 x0=0.001 Length=0.001 units=km
New Line.214302424 phases=1 Bus1=214302426.1 Bus2=214302427.1 switch=y r1=0.001 x1=0.001 r0=0.001 x0=0.001 Length=0.001 units=km
New Line.241724247 phases=1 Bus1=241724250.1 Bus2=241724249.1 switch=y r1=0.001 x1=0.001 r0=0.001 x0=0.001 Length=0.001 units=km
New Line.27083713 phases=1 Bus1=27083715.3 Bus2=27083716.3 switch=y r1=0.001 x1=0.001 r0=0.001 x0=0.001 Length=0.001 units=km
New Line.241103534 phases=1 Bus1=241103537.1 Bus2=241103536.1 switch=y r1=0.001 x1=0.001 r0=0.001 x0=0.001 Length=0.001 units=km
New Line.222610497 phases=1 Bus1=222610500.1 Bus2=222610499.1 switch=y r1=0.001 x1=0.001 r0=0.001 x0=0.001 Length=0.001 units=km
New Line.PME8915-4$PME8915-1 phases=3 Bus1=25073326.1.2.3 Bus2=25073327.1.2.3 switch=y r1=0.001 x1=0.001 r0=0.001 x0=0.001 Length=0.001 units=km
New Line.PME8915-4$PME8915-3 phases=3 Bus1=25073326.1.2.3 Bus2=25073333.1.2.3 switch=y r1=0.001 x1=0.001 r0=0.001 x0=0.001 Length=0.001 units=km
New Line.222412875 phases=1 Bus1=222412877.1 Bus2=222412878.1 switch=y r1=0.001 x1=0.001 r0=0.001 x0=0.001 Length=0.001 units=km
New Line.25075041 phases=1 Bus1=25075046.2 Bus2=25075047.2 switch=y r1=0.001 x1=0.001 r0=0.001 x0=0.001 Length=0.001 units=km
New Line.141015745 phases=1 Bus1=141015747.2 Bus2=141015748.2 switch=y r1=0.001 x1=0.001 r0=0.001 x0=0.001 Length=0.001 units=km
New Line.141015838 phases=1 Bus1=141015840.1 Bus2=141015841.1 switch=y r1=0.001 x1=0.001 r0=0.001 x0=0.001 Length=0.001 units=km
New Line.25074601 phases=1 Bus1=25074603.1 Bus2=25074604.1 switch=y r1=0.001 x1=0.001 r0=0.001 x0=0.001 Length=0.001 units=km
New Line.25074867 phases=1 Bus1=25074869.1 Bus2=25074870.1 switch=y r1=0.001 x1=0.001 r0=0.001 x0=0.001 Length=0.001 units=km
New Line.141016013 phases=1 Bus1=141016016.2 Bus2=141016015.2 switch=y r1=0.001 x1=0.001 r0=0.001 x0=0.001 Length=0.001 units=km
New Line.214339997 phases=1 Bus1=214339999.1 Bus2=214340000.1 switch=y r1=0.001 x1=0.001 r0=0.001 x0=0.001 Length=0.001 units=km
New Line.204537514 phases=1 Bus1=204537516.1 Bus2=204537517.1 switch=y r1=0.001 x1=0.001 r0=0.001 x0=0.001 Length=0.001 units=km
New Line.222412902 phases=1 Bus1=222412905.1 Bus2=222412904.1 switch=y r1=0.001 x1=0.001 r0=0.001 x0=0.001 Length=0.001 units=km
New Line.141015913 phases=1 Bus1=141015915.2 Bus2=141015916.2 switch=y r1=0.001 x1=0.001 r0=0.001 x0=0.001 Length=0.001 units=km
New Line.141015988 phases=1 Bus1=141015991.2 Bus2=141015990.2 switch=y r1=0.001 x1=0.001 r0=0.001 x0=0.001 Length=0.001 units=km
New Line.25074437 phases=1 Bus1=25074440.2 Bus2=25074439.2 switch=y r1=0.001 x1=0.001 r0=0.001 x0=0.001 Length=0.001 units=km
New Line.25075313 phases=1 Bus1=25075315.2 Bus2=25075316.2 switch=y r1=0.001 x1=0.001 r0=0.001 x0=0.001 Length=0.001 units=km
New Line.25075395 phases=1 Bus1=25075397.2 Bus2=25075398.2 switch=y r1=0.001 x1=0.001 r0=0.001 x0=0.001 Length=0.001 units=km
New Line.141015863 phases=1 Bus1=141015866.1 Bus2=141015865.1 switch=y r1=0.001 x1=0.001 r0=0.001 x0=0.001 Length=0.001 units=km
New Line.141015786 phases=1 Bus1=141015788.2 Bus2=141015789.2 switch=y r1=0.001 x1=0.001 r0=0.001 x0=0.001 Length=0.001 units=km
New Line.168991550 phases=1 Bus1=168991552.2 Bus2=168991553.2 switch=y r1=0.001 x1=0.001 r0=0.001 x0=0.001 Length=0.001 units=km
New Line.25075126 phases=1 Bus1=25075128.2 Bus2=25075129.2 switch=y r1=0.001 x1=0.001 r0=0.001 x0=0.001 Length=0.001 units=km
New Line.141015888 phases=1 Bus1=141015890.1 Bus2=141015891.1 switch=y r1=0.001 x1=0.001 r0=0.001 x0=0.001 Length=0.001 units=km
New Line.204537541 phases=1 Bus1=204537544.1 Bus2=204537543.1 switch=y r1=0.001 x1=0.001 r0=0.001 x0=0.001 Length=0.001 units=km
New Line.204537568 phases=1 Bus1=204537570.1 Bus2=204537571.1 switch=y r1=0.001 x1=0.001 r0=0.001 x0=0.001 Length=0.001 units=km
New Line.141015938 phases=1 Bus1=141015941.2 Bus2=141015940.2 switch=y r1=0.001 x1=0.001 r0=0.001 x0=0.001 Length=0.001 units=km
New Line.141015963 phases=1 Bus1=141015966.2 Bus2=141015965.2 switch=y r1=0.001 x1=0.001 r0=0.001 x0=0.001 Length=0.001 units=km
New Line.204537593 phases=1 Bus1=204537596.1 Bus2=204537595.1 switch=y r1=0.001 x1=0.001 r0=0.001 x0=0.001 Length=0.001 units=km
New Line.25074263 phases=1 Bus1=25074266.2 Bus2=25074265.2 switch=y r1=0.001 x1=0.001 r0=0.001 x0=0.001 Length=0.001 units=km
New Line.25075136 phases=1 Bus1=25075139.2 Bus2=25075138.2 switch=y r1=0.001 x1=0.001 r0=0.001 x0=0.001 Length=0.001 units=km
New Line.25074775 phases=1 Bus1=25074778.1 Bus2=25074777.1 switch=y r1=0.001 x1=0.001 r0=0.001 x0=0.001 Length=0.001 units=km
New Line.25075477 phases=1 Bus1=25075479.2 Bus2=25075480.2 switch=y r1=0.001 x1=0.001 r0=0.001 x0=0.001 Length=0.001 units=km
New Line.25075559 phases=1 Bus1=25075561.2 Bus2=25075562.2 switch=y r1=0.001 x1=0.001 r0=0.001 x0=0.001 Length=0.001 units=km
New Line.141015813 phases=1 Bus1=141015815.2 Bus2=141015816.2 switch=y r1=0.001 x1=0.001 r0=0.001 x0=0.001 Length=0.001 units=km
New Line.204537618 phases=1 Bus1=204537620.1 Bus2=204537621.1 switch=y r1=0.001 x1=0.001 r0=0.001 x0=0.001 Length=0.001 units=km
New Line.25074519 phases=1 Bus1=25074521.2 Bus2=25074522.2 switch=y r1=0.001 x1=0.001 r0=0.001 x0=0.001 Length=0.001 units=km
New Line.25074683 phases=1 Bus1=25074685.1 Bus2=25074686.1 switch=y r1=0.001 x1=0.001 r0=0.001 x0=0.001 Length=0.001 units=km
New Line.27084636$PME8884-3 phases=3 Bus1=27084602.1.2.3 Bus2=27084603.1.2.3 switch=y r1=0.001 x1=0.001 r0=0.001 x0=0.001 Length=0.001 units=km
New Line.196665298 phases=1 Bus1=196665300.1 Bus2=196665301.1 switch=y r1=0.001 x1=0.001 r0=0.001 x0=0.001 Length=0.001 units=km
New Line.229906456 phases=1 Bus1=229906458.2 Bus2=229906459.2 switch=y r1=0.001 x1=0.001 r0=0.001 x0=0.001 Length=0.001 units=km
New Line.PME4598-4$PME4598-3 phases=3 Bus1=27051016.1.2.3 Bus2=27051017.1.2.3 switch=y r1=0.001 x1=0.001 r0=0.001 x0=0.001 Length=0.001 units=km
New Line.27083365 phases=1 Bus1=27083367.3 Bus2=27083368.3 switch=y r1=0.001 x1=0.001 r0=0.001 x0=0.001 Length=0.001 units=km
New Line.214339798 phases=1 Bus1=214339800.2 Bus2=214339801.2 switch=y r1=0.001 x1=0.001 r0=0.001 x0=0.001 Length=0.001 units=km
New Line.214340045 phases=1 Bus1=214340047.1 Bus2=214340048.1 switch=y r1=0.001 x1=0.001 r0=0.001 x0=0.001 Length=0.001 units=km
New Line.214339707 phases=1 Bus1=214339709.1 Bus2=214339710.1 switch=y r1=0.001 x1=0.001 r0=0.001 x0=0.001 Length=0.001 units=km
New Line.196665325 phases=1 Bus1=196665328.1 Bus2=196665327.1 switch=y r1=0.001 x1=0.001 r0=0.001 x0=0.001 Length=0.001 units=km
New Line.15909881$RCS9881-3 phases=3 Bus1=15909848.1.2.3 Bus2=15909847.1.2.3 switch=y r1=0.001 x1=0.001 r0=0.001 x0=0.001 Length=0.001 units=km
New Line.214340164 phases=1 Bus1=214340166.2 Bus2=214340167.2 switch=y r1=0.001 x1=0.001 r0=0.001 x0=0.001 Length=0.001 units=km
New Line.229906483 phases=1 Bus1=229906486.2 Bus2=229906485.2 switch=y r1=0.001 x1=0.001 r0=0.001 x0=0.001 Length=0.001 units=km
New Line.27083457 phases=1 Bus1=27083459.3 Bus2=27083460.3 switch=y r1=0.001 x1=0.001 r0=0.001 x0=0.001 Length=0.001 units=km
New Line.200551313 phases=1 Bus1=200551315.1 Bus2=200551316.1 switch=y r1=0.001 x1=0.001 r0=0.001 x0=0.001 Length=0.001 units=km
New Line.214339825 phases=1 Bus1=214339828.2 Bus2=214339827.2 switch=y r1=0.001 x1=0.001 r0=0.001 x0=0.001 Length=0.001 units=km
New Line.229906508 phases=1 Bus1=229906510.2 Bus2=229906511.2 switch=y r1=0.001 x1=0.001 r0=0.001 x0=0.001 Length=0.001 units=km
New Line.214340072 phases=1 Bus1=214340075.1 Bus2=27113615.1 switch=y r1=0.001 x1=0.001 r0=0.001 x0=0.001 Length=0.001 units=km
New Line.173117424 phases=1 Bus1=173117427.2 Bus2=173117426.2 switch=y r1=0.001 x1=0.001 r0=0.001 x0=0.001 Length=0.001 units=km
New Line.214339734 phases=1 Bus1=214339737.1 Bus2=214339736.1 switch=y r1=0.001 x1=0.001 r0=0.001 x0=0.001 Length=0.001 units=km
New Line.173117326 phases=1 Bus1=173117328.1 Bus2=173117329.1 switch=y r1=0.001 x1=0.001 r0=0.001 x0=0.001 Length=0.001 units=km
New Line.173117397 phases=1 Bus1=173117399.2 Bus2=173117400.2 switch=y r1=0.001 x1=0.001 r0=0.001 x0=0.001 Length=0.001 units=km
New Line.214339762 phases=1 Bus1=214339764.1 Bus2=214339765.1 switch=y r1=0.001 x1=0.001 r0=0.001 x0=0.001 Length=0.001 units=km
New Line.214339857 phases=1 Bus1=214339859.3 Bus2=214339860.3 switch=y r1=0.001 x1=0.001 r0=0.001 x0=0.001 Length=0.001 units=km
New Line.214339942 phases=1 Bus1=214339944.3 Bus2=214339945.3 switch=y r1=0.001 x1=0.001 r0=0.001 x0=0.001 Length=0.001 units=km
New Line.214340193 phases=1 Bus1=214340196.2 Bus2=214340195.2 switch=y r1=0.001 x1=0.001 r0=0.001 x0=0.001 Length=0.001 units=km
New Line.214340307 phases=1 Bus1=214340309.1 Bus2=214340310.1 switch=y r1=0.001 x1=0.001 r0=0.001 x0=0.001 Length=0.001 units=km
New Line.222412944 phases=1 Bus1=222412946.1 Bus2=222412947.1 switch=y r1=0.001 x1=0.001 r0=0.001 x0=0.001 Length=0.001 units=km
New Line.27083447 phases=1 Bus1=27083450.3 Bus2=27083449.3 switch=y r1=0.001 x1=0.001 r0=0.001 x0=0.001 Length=0.001 units=km
New Line.200551325 phases=1 Bus1=200551328.1 Bus2=200551327.1 switch=y r1=0.001 x1=0.001 r0=0.001 x0=0.001 Length=0.001 units=km
New Line.214340109 phases=1 Bus1=214340111.2 Bus2=214340112.2 switch=y r1=0.001 x1=0.001 r0=0.001 x0=0.001 Length=0.001 units=km
New Line.231257763$231257779 phases=3 Bus1=231257752.1.2.3 Bus2=231257746.1.2.3 switch=y r1=0.001 x1=0.001 r0=0.001 x0=0.001 Length=0.001 units=km
New Line.231257779$GS1339-4 phases=3 Bus1=231257752.1.2.3 Bus2=231257758.1.2.3 switch=y r1=0.001 x1=0.001 r0=0.001 x0=0.001 Length=0.001 units=km
New Line.214340218 phases=1 Bus1=214340220.2 Bus2=214340221.2 switch=y r1=0.001 x1=0.001 r0=0.001 x0=0.001 Length=0.001 units=km
New Line.231163514 phases=3 Bus1=231163516.1.2.3 Bus2=231163517.1.2.3 switch=y r1=0.001 x1=0.001 r0=0.001 x0=0.001 Length=0.001 units=km
New Line.231257771$231257763 phases=3 Bus1=231257746.1.2.3 Bus2=231257745.1.2.3 switch=y r1=0.001 x1=0.001 r0=0.001 x0=0.001 Length=0.001 units=km
New Line.237866871 phases=3 Bus1=237866873.1.2.3 Bus2=237866874.1.2.3 switch=y r1=0.001 x1=0.001 r0=0.001 x0=0.001 Length=0.001 units=km
New Line.27083549 phases=1 Bus1=27083551.3 Bus2=27083552.3 switch=y r1=0.001 x1=0.001 r0=0.001 x0=0.001 Length=0.001 units=km
New Line.214302337 phases=1 Bus1=214302339.1 Bus2=214302340.1 switch=y r1=0.001 x1=0.001 r0=0.001 x0=0.001 Length=0.001 units=km
New Line.214302384 phases=1 Bus1=214302386.1 Bus2=214302387.1 switch=y r1=0.001 x1=0.001 r0=0.001 x0=0.001 Length=0.001 units=km
New Line.GS0417-2$GS0417-3 phases=3 Bus1=242793551.1.2.3 Bus2=242793545.1.2.3 switch=y r1=0.001 x1=0.001 r0=0.001 x0=0.001 Length=0.001 units=km
New Line.222412971 phases=1 Bus1=222412974.1 Bus2=222412973.1 switch=y r1=0.001 x1=0.001 r0=0.001 x0=0.001 Length=0.001 units=km
New Line.239661028 phases=1 Bus1=239661030.2 Bus2=239661031.2 switch=y r1=0.001 x1=0.001 r0=0.001 x0=0.001 Length=0.001 units=km
New Line.GS0417-1$GS0417-2 phases=3 Bus1=242793545.1.2.3 Bus2=242793544.1.2.3 switch=y r1=0.001 x1=0.001 r0=0.001 x0=0.001 Length=0.001 units=km
New Line.5577380:GS1769-3 phases=3 Bus1=105576402.1.2.3 Bus2=105576379.1.2.3 switch=y r1=0.001 x1=0.001 r0=0.001 x0=0.001 Length=0.001 units=km
New Line.5577380:GS1769-2 phases=3 Bus1=105576373.1.2.3 Bus2=105576394.1.2.3 switch=y r1=0.001 x1=0.001 r0=0.001 x0=0.001 Length=0.001 units=km
New Line.5577380:GS1769-1 phases=3 Bus1=105576372.1.2.3 Bus2=105576386.1.2.3 switch=y r1=0.001 x1=0.001 r0=0.001 x0=0.001 Length=0.001 units=km
New Line.5577382:RCS1770-1 phases=3 Bus1=223216696.1.2.3 Bus2=223216668.1.2.3 switch=y r1=0.001 x1=0.001 r0=0.001 x0=0.001 Length=0.001 units=km
New Line.5577382:RCS1770-2 phases=3 Bus1=223216669.1.2.3 Bus2=223216688.1.2.3 switch=y r1=0.001 x1=0.001 r0=0.001 x0=0.001 Length=0.001 units=km
New Line.5574738:GS1771-3 phases=3 Bus1=107646267.1.2.3 Bus2=107646244.1.2.3 switch=y r1=0.001 x1=0.001 r0=0.001 x0=0.001 Length=0.001 units=km
New Line.5577382:RCS1770-4 phases=3 Bus1=223216681.1.2.3 Bus2=223216712.1.2.3 switch=y r1=0.001 x1=0.001 r0=0.001 x0=0.001 Length=0.001 units=km
New Line.5025408:GS0417-1 phases=3 Bus1=242793544.1.2.3 Bus2=242793559.1.2.3 switch=y r1=0.001 x1=0.001 r0=0.001 x0=0.001 Length=0.001 units=km
New Line.5465832:PME8915-4 phases=3 Bus1=25073340.1.2.3 Bus2=25073326.1.2.3 switch=y r1=0.001 x1=0.001 r0=0.001 x0=0.001 Length=0.001 units=km
New Line.5403931:P5403931-1 phases=1 Bus1=15907318.1 Bus2=15907319.1 switch=y r1=0.001 x1=0.001 r0=0.001 x0=0.001 Length=0.001 units=km
New Line.5403931:P5403931-2 phases=1 Bus1=15907319.1 Bus2=15907327.1 switch=y r1=0.001 x1=0.001 r0=0.001 x0=0.001 Length=0.001 units=km
New Line.5709604:P5709604-2 phases=1 Bus1=204537456.1 Bus2=204537448.1 switch=y r1=0.001 x1=0.001 r0=0.001 x0=0.001 Length=0.001 units=km
New Line.5574738:GS1771-2 phases=3 Bus1=107646238.1.2.3 Bus2=107646259.1.2.3 switch=y r1=0.001 x1=0.001 r0=0.001 x0=0.001 Length=0.001 units=km
New Line.5574738:GS1771-1 phases=3 Bus1=107646237.1.2.3 Bus2=107646251.1.2.3 switch=y r1=0.001 x1=0.001 r0=0.001 x0=0.001 Length=0.001 units=km
New Line.1539092E:1539092E phases=3 Bus1=207491179.1.2.3 Bus2=207491180.1.2.3 switch=y r1=0.001 x1=0.001 r0=0.001 x0=0.001 Length=0.001 units=km
New Line.5482894:PME8884-1 phases=3 Bus1=27084638.1.2.3 Bus2=27084602.1.2.3 switch=y r1=0.001 x1=0.001 r0=0.001 x0=0.001 Length=0.001 units=km
New Line.5482894:PME8884-2 phases=3 Bus1=27084603.1.2.3 Bus2=27084629.1.2.3 switch=y r1=0.001 x1=0.001 r0=0.001 x0=0.001 Length=0.001 units=km
New Line.1722914E:RCS1772 phases=3 Bus1=108850605.1.2.3 Bus2=108850606.1.2.3 switch=y r1=0.001 x1=0.001 r0=0.001 x0=0.001 Length=0.001 units=km
New Line.5381188:RCS9881-2 phases=3 Bus1=15909874.1.2.3 Bus2=15909848.1.2.3 switch=y r1=0.001 x1=0.001 r0=0.001 x0=0.001 Length=0.001 units=km
New Line.5381188:RCS9881-4 phases=3 Bus1=15909847.1.2.3 Bus2=15909865.1.2.3 switch=y r1=0.001 x1=0.001 r0=0.001 x0=0.001 Length=0.001 units=km
New Line.5381188:RCS9881-1 phases=3 Bus1=15909847.1.2.3 Bus2=15909883.1.2.3 switch=y r1=0.001 x1=0.001 r0=0.001 x0=0.001 Length=0.001 units=km
New Line.1538887E:1538887E phases=3 Bus1=25092041.1.2.3 Bus2=25092040.1.2.3 switch=y r1=0.001 x1=0.001 r0=0.001 x0=0.001 Length=0.001 units=km
New Line.1539092E:1539092EI1 phases=3 Bus1=206736563.1.2.3 Bus2=206736562.1.2.3 switch=y r1=0.001 x1=0.001 r0=0.001 x0=0.001 Length=0.001 units=km
New Line.4754058ET1:4754058ET1T1 phases=3 Bus1=227629404.1.2.3 Bus2=227629405.1.2.3 switch=y r1=0.001 x1=0.001 r0=0.001 x0=0.001 Length=0.001 units=km
New Line.1722914E:1722914E phases=3 Bus1=25090903.1.2.3 Bus2=25090902.1.2.3 switch=y r1=0.001 x1=0.001 r0=0.001 x0=0.001 Length=0.001 units=km
New Line.V5370925:GS1339-3 phases=3 Bus1=231257781.1.2.3 Bus2=231257752.1.2.3 switch=y r1=0.001 x1=0.001 r0=0.001 x0=0.001 Length=0.001 units=km
New Line.V5370925:GS1339-2 phases=3 Bus1=231257746.1.2.3 Bus2=231257765.1.2.3 switch=y r1=0.001 x1=0.001 r0=0.001 x0=0.001 Length=0.001 units=km
New Line.V5370925:GS1339-4 phases=3 Bus1=231257758.1.2.3 Bus2=231257789.1.2.3 switch=y r1=0.001 x1=0.001 r0=0.001 x0=0.001 Length=0.001 units=km
New Line.5025408:GS0417-3 phases=3 Bus1=242793577.1.2.3 Bus2=242793551.1.2.3 switch=y r1=0.001 x1=0.001 r0=0.001 x0=0.001 Length=0.001 units=km
New Line.V5370925:GS1339-1 phases=3 Bus1=231257745.1.2.3 Bus2=231257773.1.2.3 switch=y r1=0.001 x1=0.001 r0=0.001 x0=0.001 Length=0.001 units=km
New Line.5025408:GS0417-2 phases=3 Bus1=242793545.1.2.3 Bus2=242793568.1.2.3 switch=y r1=0.001 x1=0.001 r0=0.001 x0=0.001 Length=0.001 units=km
New Line.5401272:P5401272-1 phases=1 Bus1=15905453.1 Bus2=15905454.1 switch=y r1=0.001 x1=0.001 r0=0.001 x0=0.001 Length=0.001 units=km
New Line.5399026:P5399026-2 phases=1 Bus1=15905894.1 Bus2=15905886.1 switch=y r1=0.001 x1=0.001 r0=0.001 x0=0.001 Length=0.001 units=km
New Line.5370924:B5370924-1 phases=1 Bus1=15909563.1 Bus2=15909564.1 switch=y r1=0.001 x1=0.001 r0=0.001 x0=0.001 Length=0.001 units=km
New Line.5482824:P5482824-2 phases=1 Bus1=27048788.2 Bus2=27048796.2 switch=y r1=0.001 x1=0.001 r0=0.001 x0=0.001 Length=0.001 units=km
New Line.5469829:P5469829-2 phases=1 Bus1=27049652.1 Bus2=27049660.1 switch=y r1=0.001 x1=0.001 r0=0.001 x0=0.001 Length=0.001 units=km
New Line.5491087:P5491087-2 phases=1 Bus1=27083574.3 Bus2=27083566.3 switch=y r1=0.001 x1=0.001 r0=0.001 x0=0.001 Length=0.001 units=km
New Line.5491119:P5491119-1 phases=1 Bus1=27084212.1 Bus2=27084211.1 switch=y r1=0.001 x1=0.001 r0=0.001 x0=0.001 Length=0.001 units=km
New Line.5491121:P5491121-1 phases=1 Bus1=27084284.1 Bus2=27084283.1 switch=y r1=0.001 x1=0.001 r0=0.001 x0=0.001 Length=0.001 units=km
New Line.5409891:P5409891-1 phases=1 Bus1=15905597.1 Bus2=15905598.1 switch=y r1=0.001 x1=0.001 r0=0.001 x0=0.001 Length=0.001 units=km
New Line.5399026:P5399026-1 phases=1 Bus1=15905886.1 Bus2=15905885.1 switch=y r1=0.001 x1=0.001 r0=0.001 x0=0.001 Length=0.001 units=km
New Line.5370924:B5370924-2 phases=1 Bus1=15909564.1 Bus2=15909572.1 switch=y r1=0.001 x1=0.001 r0=0.001 x0=0.001 Length=0.001 units=km
New Line.5469810:P5469810-1 phases=1 Bus1=27050155.3 Bus2=27050156.3 switch=y r1=0.001 x1=0.001 r0=0.001 x0=0.001 Length=0.001 units=km
New Line.5469812:P5469812-2 phases=1 Bus1=27050308.3 Bus2=27050300.3 switch=y r1=0.001 x1=0.001 r0=0.001 x0=0.001 Length=0.001 units=km
New Line.5469826:P5469826-2 phases=1 Bus1=27050668.2 Bus2=27050660.2 switch=y r1=0.001 x1=0.001 r0=0.001 x0=0.001 Length=0.001 units=km
New Line.5491087:P5491087-1 phases=1 Bus1=27083566.3 Bus2=27083565.3 switch=y r1=0.001 x1=0.001 r0=0.001 x0=0.001 Length=0.001 units=km
New Line.5409891:P5409891-2 phases=1 Bus1=15905598.1 Bus2=15905606.1 switch=y r1=0.001 x1=0.001 r0=0.001 x0=0.001 Length=0.001 units=km
New Line.4735330E:4735330EPH phases=3 Bus1=108872588.1.2.3 Bus2=108872587.1.2.3 switch=y r1=0.001 x1=0.001 r0=0.001 x0=0.001 Length=0.001 units=km
New Line.1804601E:1804601E phases=3 Bus1=25055790.1.2.3 Bus2=160081198.1.2.3 switch=y r1=0.001 x1=0.001 r0=0.001 x0=0.001 Length=0.001 units=km
New Line.1856805E:FD35125 phases=2 Bus1=25056106.2.3 Bus2=25056107.2.3 switch=y r1=0.001 x1=0.001 r0=0.001 x0=0.001 Length=0.001 units=km
New Line.1856807E:1856804E phases=3 Bus1=25036948.1.2.3 Bus2=25036949.1.2.3 switch=y r1=0.001 x1=0.001 r0=0.001 x0=0.001 Length=0.001 units=km
New Line.5470053:P5470053-1 phases=1 Bus1=15909128.2 Bus2=15909129.2 switch=y r1=0.001 x1=0.001 r0=0.001 x0=0.001 Length=0.001 units=km
New Line.5491122:P5491122-1 phases=1 Bus1=27083873.1 Bus2=27083874.1 switch=y r1=0.001 x1=0.001 r0=0.001 x0=0.001 Length=0.001 units=km
New Line.5491120:P5491120-2 phases=1 Bus1=27084148.1 Bus2=27084140.1 switch=y r1=0.001 x1=0.001 r0=0.001 x0=0.001 Length=0.001 units=km
New Line.5381194:P5381194-A phases=3 Bus1=153249899.1.2.3 Bus2=153249883.1.2.3 switch=y r1=0.001 x1=0.001 r0=0.001 x0=0.001 Length=0.001 units=km
New Line.5382672:P5382672-2 phases=1 Bus1=15906038.1 Bus2=15906030.1 switch=y r1=0.001 x1=0.001 r0=0.001 x0=0.001 Length=0.001 units=km
New Line.5399018:P5399018-2 phases=1 Bus1=15906326.2 Bus2=15906318.2 switch=y r1=0.001 x1=0.001 r0=0.001 x0=0.001 Length=0.001 units=km
New Line.5470053:P5470053-2 phases=1 Bus1=15909129.2 Bus2=15909137.2 switch=y r1=0.001 x1=0.001 r0=0.001 x0=0.001 Length=0.001 units=km
New Line.5482802:B5482802-2 phases=1 Bus1=15909500.1 Bus2=15909492.1 switch=y r1=0.001 x1=0.001 r0=0.001 x0=0.001 Length=0.001 units=km
New Line.5469830:P5469830-2 phases=1 Bus1=27049732.1 Bus2=27049724.1 switch=y r1=0.001 x1=0.001 r0=0.001 x0=0.001 Length=0.001 units=km
New Line.5469831:P5469831-1 phases=1 Bus1=27049795.1 Bus2=27049796.1 switch=y r1=0.001 x1=0.001 r0=0.001 x0=0.001 Length=0.001 units=km
New Line.5447672:P5447672-2 phases=1 Bus1=27050596.2 Bus2=27050588.2 switch=y r1=0.001 x1=0.001 r0=0.001 x0=0.001 Length=0.001 units=km
New Line.5483435:P5483435-2 phases=1 Bus1=27051888.3 Bus2=27051880.3 switch=y r1=0.001 x1=0.001 r0=0.001 x0=0.001 Length=0.001 units=km
New Line.5483433:P5483433-2 phases=1 Bus1=27051960.3 Bus2=27051952.3 switch=y r1=0.001 x1=0.001 r0=0.001 x0=0.001 Length=0.001 units=km
New Line.5381194:P5381194-B phases=3 Bus1=153249883.1.2.3 Bus2=153249882.1.2.3 switch=y r1=0.001 x1=0.001 r0=0.001 x0=0.001 Length=0.001 units=km
New Line.5381194:P5381194-T phases=3 Bus1=153249883.1.2.3 Bus2=153249891.1.2.3 switch=y r1=0.001 x1=0.001 r0=0.001 x0=0.001 Length=0.001 units=km
New Line.5382672:P5382672-1 phases=1 Bus1=15906030.1 Bus2=15906029.1 switch=y r1=0.001 x1=0.001 r0=0.001 x0=0.001 Length=0.001 units=km
New Line.5399018:P5399018-1 phases=1 Bus1=15906318.2 Bus2=15906317.2 switch=y r1=0.001 x1=0.001 r0=0.001 x0=0.001 Length=0.001 units=km
New Line.5574370:P5574370-1 phases=1 Bus1=15908693.2 Bus2=15908694.2 switch=y r1=0.001 x1=0.001 r0=0.001 x0=0.001 Length=0.001 units=km
New Line.5026330:B5026330-1 phases=1 Bus1=25037228.1 Bus2=25037229.1 switch=y r1=0.001 x1=0.001 r0=0.001 x0=0.001 Length=0.001 units=km
New Line.5026150:B5026150-1 phases=1 Bus1=25037372.1 Bus2=25037373.1 switch=y r1=0.001 x1=0.001 r0=0.001 x0=0.001 Length=0.001 units=km
New Line.5026327:B5026327-2 phases=1 Bus1=25037525.1 Bus2=25037517.1 switch=y r1=0.001 x1=0.001 r0=0.001 x0=0.001 Length=0.001 units=km
New Line.5483431:P5483431-2 phases=1 Bus1=27052032.3 Bus2=27052024.3 switch=y r1=0.001 x1=0.001 r0=0.001 x0=0.001 Length=0.001 units=km
New Line.5491089:P5491089-2 phases=1 Bus1=27083656.3 Bus2=27083648.3 switch=y r1=0.001 x1=0.001 r0=0.001 x0=0.001 Length=0.001 units=km
New Line.5475172:P5475172-1 phases=1 Bus1=15907947.2 Bus2=15907948.2 switch=y r1=0.001 x1=0.001 r0=0.001 x0=0.001 Length=0.001 units=km
New Line.5475173:P5475173-2 phases=1 Bus1=15908028.2 Bus2=15908020.2 switch=y r1=0.001 x1=0.001 r0=0.001 x0=0.001 Length=0.001 units=km
New Line.5026330:B5026330-2 phases=1 Bus1=25037229.1 Bus2=25037237.1 switch=y r1=0.001 x1=0.001 r0=0.001 x0=0.001 Length=0.001 units=km
New Line.5026150:B5026150-2 phases=1 Bus1=25037373.1 Bus2=25037381.1 switch=y r1=0.001 x1=0.001 r0=0.001 x0=0.001 Length=0.001 units=km
New Line.5026327:B5026327-1 phases=1 Bus1=25037517.1 Bus2=25037516.1 switch=y r1=0.001 x1=0.001 r0=0.001 x0=0.001 Length=0.001 units=km
New Line.5482983:P5482983-1 phases=1 Bus1=27051274.1 Bus2=27051275.1 switch=y r1=0.001 x1=0.001 r0=0.001 x0=0.001 Length=0.001 units=km
New Line.5382673:P5382673-2 phases=1 Bus1=15905966.1 Bus2=15905958.1 switch=y r1=0.001 x1=0.001 r0=0.001 x0=0.001 Length=0.001 units=km
New Line.5399019:P5399019-1 phases=1 Bus1=15906245.2 Bus2=15906246.2 switch=y r1=0.001 x1=0.001 r0=0.001 x0=0.001 Length=0.001 units=km
New Line.5475173:P5475173-1 phases=1 Bus1=15908020.2 Bus2=15908019.2 switch=y r1=0.001 x1=0.001 r0=0.001 x0=0.001 Length=0.001 units=km
New Line.5482825:P5482825-1 phases=1 Bus1=27048931.2 Bus2=27048932.2 switch=y r1=0.001 x1=0.001 r0=0.001 x0=0.001 Length=0.001 units=km
...

! Loads
New Load.5496991 Bus1=-99999925074700.1.0 phases=1 kV=0.069282 kW=0 kvar=0 model=1
New Load.5401582 Bus1=-999999222412790.1.0 phases=1 kV=0.069282 kW=0 kvar=0 model=1
New Load.5472108 Bus1=-99999915907607.3.0 phases=1 kV=0.069282 kW=0 kvar=0 model=1
New Load.5446768 Bus1=-99999915906956.3.0 phases=1 kV=0.069282 kW=0 kvar=0 model=1
New Load.5475175 Bus1=-99999915908164.2.0 phases=1 kV=0.069282 kW=0 kvar=0 model=1
New Load.5482821 Bus1=-99999927049364.2.0 phases=1 kV=0.069282 kW=0 kvar=0 model=1
New Load.5469820 Bus1=-99999927050804.2.0 phases=1 kV=0.069282 kW=0 kvar=0 model=1
New Load.5469803 Bus1=-99999927085329.1.0 phases=1 kV=0.069282 kW=0 kvar=0 model=1
New Load.5491086 Bus1=-99999927083474.3.0 phases=1 kV=0.069282 kW=0 kvar=0 model=1
New Load.5482823 Bus1=-99999927048860.2.0 phases=1 kV=0.069282 kW=0 kvar=0 model=1
New Load.1584812E_0 Bus1=-99999925056008.2.0 phases=1 kV=0.069282 kW=0 kvar=0 model=1
New Load.1584812E_1 Bus1=-99999925056008.3.0 phases=1 kV=0.069282 kW=0 kvar=0 model=1
New Load.5469815 Bus1=-99999927050084.1.0 phases=1 kV=0.069282 kW=0 kvar=0 model=1
New Load.1584816E_0 Bus1=-999999135865092.2.0 phases=1 kV=0.069282 kW=0 kvar=0 model=1
New Load.1584816E_1 Bus1=-999999135865092.3.0 phases=1 kV=0.069282 kW=0 kvar=0 model=1
New Load.1584813E_0 Bus1=-99999925055750.2.0 phases=1 kV=0.069282 kW=0 kvar=0 model=1
New Load.1584813E_1 Bus1=-99999925055750.3.0 phases=1 kV=0.069282 kW=0 kvar=0 model=1
New Load.1539054E_0 Bus1=-99999925037816.3.0 phases=1 kV=0.069282 kW=0 kvar=0 model=1
New Load.1539054E_1 Bus1=-99999925037816.1.0 phases=1 kV=0.069282 kW=0 kvar=0 model=1
New Load.5469807 Bus1=-99999927050516.3.0 phases=1 kV=0.069282 kW=0 kvar=0 model=1
New Load.5381337 Bus1=-99999915906784.1.0 phases=1 kV=0.069282 kW=0 kvar=0 model=1
New Load.5399020 Bus1=-99999915906174.2.0 phases=1 kV=0.069282 kW=0 kvar=0 model=1
New Load.5472103 Bus1=-99999915907732.3.0 phases=1 kV=0.069282 kW=0 kvar=0 model=1
New Load.5395145 Bus1=-99999915905307.1.0 phases=1 kV=0.069282 kW=0 kvar=0 model=1
New Load.5403931 Bus1=-99999915907319.1.0 phases=1 kV=0.069282 kW=0 kvar=0 model=1
New Load.5497000 Bus1=-99999925075494.2.0 phases=1 kV=0.069282 kW=0 kvar=0 model=1
New Load.5403932 Bus1=-99999915907391.1.0 phases=1 kV=0.069282 kW=0 kvar=0 model=1
New Load.5497001 Bus1=-99999925075576.2.0 phases=1 kV=0.069282 kW=0 kvar=0 model=1
New Load.1584803E_0 Bus1=-99999925037741.2.0 phases=1 kV=0.069282 kW=0 kvar=0 model=1
New Load.1584803E_1 Bus1=-99999925037741.3.0 phases=1 kV=0.069282 kW=0 kvar=0 model=1
New Load.1539051E_0 Bus1=-999999102644441.2.0 phases=1 kV=0.069282 kW=0 kvar=0 model=1
New Load.1539051E_1 Bus1=-999999102644441.3.0 phases=1 kV=0.069282 kW=0 kvar=0 model=1
New Load.5469801 Bus1=-99999927050876.1.0 phases=1 kV=0.069282 kW=0 kvar=0 model=1
New Load.5483441 Bus1=-99999927082298.1.0 phases=1 kV=0.069282 kW=0 kvar=0 model=1
New Load.1584801E_0 Bus1=-999999169162962.2.0 phases=1 kV=0.069282 kW=0 kvar=0 model=1
New Load.1584801E_1 Bus1=-999999169162962.3.0 phases=1 kV=0.069282 kW=0 kvar=0 model=1
New Load.5483439 Bus1=-99999927082442.3.0 phases=1 kV=0.069282 kW=0 kvar=0 model=1
New Load.1538900E_0 Bus1=-999999268725431.2.0 phases=1 kV=0.069282 kW=0 kvar=0 model=1
New Load.1538900E_1 Bus1=-999999268725431.3.0 phases=1 kV=0.069282 kW=0 kvar=0 model=1
New Load.5491085 Bus1=-99999927083382.3.0 phases=1 kV=0.069282 kW=0 kvar=0 model=1
New Load.5482962 Bus1=-99999927051491.2.0 phases=1 kV=0.069282 kW=0 kvar=0 model=1
New Load.5483436 Bus1=-99999927082514.2.0 phases=1 kV=0.069282 kW=0 kvar=0 model=1
New Load.5709527 Bus1=-999999238163045.2.0 phases=1 kV=0.069282 kW=0 kvar=0 model=1
New Load.5381188 Bus1=-999999230966232.3.0 phases=1 kV=0.069282 kW=0 kvar=0 model=1
New Load.5026151 Bus1=-99999925036881.2.0 phases=1 kV=0.069282 kW=0 kvar=0 model=1
New Load.1584832E_0 Bus1=-999999242483279.3.0 phases=1 kV=0.069282 kW=0 kvar=0 model=1
New Load.1584832E_1 Bus1=-999999242483279.1.0 phases=1 kV=0.069282 kW=0 kvar=0 model=1
New Load.5469822 Bus1=-99999927050732.2.0 phases=1 kV=0.069282 kW=0 kvar=0 model=1
New Load.1539064E_0 Bus1=-99999925037941.2.0 phases=1 kV=0.069282 kW=0 kvar=0 model=1
New Load.1539064E_1 Bus1=-99999925037941.3.0 phases=1 kV=0.069282 kW=0 kvar=0 model=1
New Load.5481720 Bus1=-99999915909420.3.0 phases=1 kV=0.069282 kW=0 kvar=0 model=1
...